Circuit: * S:\My Documents\DavidHouston\Critter\Power_Distro\Chassis_Static_Charge_Effect_Design.asc

WARNING: Node N001 is floating.

WARNING: Less than two connections to node NC_01.  This node is used by R2.
Direct Newton iteration for .op point succeeded.

Date: Thu Aug 20 17:56:58 2015
Total elapsed time: 0.265 seconds.

tnom = 27
temp = 27
method = modified trap
totiter = 636
traniter = 633
tranpoints = 317
accept = 317
rejected = 0
matrix size = 8
fillins = 0
solver = Normal
Matrix Compiler1: 394 bytes object code size  0.3/0.2/[0.1]
Matrix Compiler2: off  [0.1]/0.3/0.1


